Version 4
SHEET 1 1148 680
WIRE 1056 -272 1056 -320
WIRE 1056 -144 1056 -192
WIRE 800 16 704 16
WIRE 976 16 880 16
WIRE -96 96 -240 96
WIRE 64 96 -16 96
WIRE 160 96 64 96
WIRE 784 112 784 64
WIRE 512 144 480 144
WIRE 704 144 704 16
WIRE 704 144 592 144
WIRE 752 144 704 144
WIRE -240 160 -240 96
WIRE 64 160 64 96
WIRE 976 160 976 16
WIRE 976 160 912 160
WIRE 1008 160 976 160
WIRE 752 208 624 208
WIRE 976 224 912 224
WIRE 1008 224 976 224
WIRE 512 240 480 240
WIRE 704 240 592 240
WIRE 752 240 704 240
WIRE -240 288 -240 240
WIRE -96 288 -240 288
WIRE 64 288 64 224
WIRE 64 288 -16 288
WIRE 160 288 64 288
WIRE 784 320 784 272
WIRE 624 368 624 208
WIRE 704 368 704 240
WIRE 800 368 704 368
WIRE 976 368 976 224
WIRE 976 368 880 368
WIRE 1088 512 1088 480
WIRE 1088 624 1088 592
FLAG 160 96 Vdiff+
FLAG 160 288 Vdiff-
FLAG 624 448 0
FLAG 480 144 Vdiff-
FLAG 480 240 Vdiff+
FLAG 784 320 Vce
FLAG 784 64 Vcc
FLAG 1088 624 0
FLAG 1088 480 Vce
FLAG 1056 -320 0
FLAG 1056 -144 Vcc
FLAG 1008 160 Vout+
FLAG 1008 224 Vout-
SYMBOL OpAmps\\LTC1992 816 192 R0
SYMATTR InstName U1
SYMBOL res 0 80 R90
WINDOW 0 0 56 VBottom 2
WINDOW 3 32 56 VTop 2
SYMATTR InstName R1
SYMATTR Value 1900
SYMBOL cap 48 160 R0
SYMATTR InstName C1
SYMATTR Value 183n
SYMBOL res 0 272 R90
WINDOW 0 0 56 VBottom 2
WINDOW 3 32 56 VTop 2
SYMATTR InstName R2
SYMATTR Value 1900
SYMBOL voltage -240 144 R0
WINDOW 123 24 124 Left 2
WINDOW 39 0 0 Left 0
WINDOW 3 24 48 Left 2
SYMATTR Value2 AC 1
SYMATTR Value 5
SYMATTR InstName V1
SYMBOL res 896 0 R90
WINDOW 0 0 56 VBottom 2
WINDOW 3 32 56 VTop 2
SYMATTR InstName R3
SYMATTR Value 2k
SYMBOL res 608 128 R90
WINDOW 0 0 56 VBottom 2
WINDOW 3 32 56 VTop 2
SYMATTR InstName R4
SYMATTR Value 1k
SYMBOL res 896 352 R90
WINDOW 0 0 56 VBottom 2
WINDOW 3 32 56 VTop 2
SYMATTR InstName R5
SYMATTR Value 1k
SYMBOL res 608 224 R90
WINDOW 0 0 56 VBottom 2
WINDOW 3 32 56 VTop 2
SYMATTR InstName R6
SYMATTR Value 1k
SYMBOL voltage 624 352 R0
WINDOW 123 0 0 Left 0
WINDOW 39 0 0 Left 0
SYMATTR InstName V2
SYMATTR Value 2
SYMBOL voltage 1088 496 R0
WINDOW 123 0 0 Left 0
WINDOW 39 0 0 Left 0
SYMATTR InstName V3
SYMATTR Value 0
SYMBOL voltage 1056 -176 R180
WINDOW 123 0 0 Left 0
WINDOW 39 0 0 Left 0
SYMATTR InstName V4
SYMATTR Value 5
TEXT -1096 424 Left 2 !.tran 0 3 0 0.0001
